[root]
type=Root
children=system
eventq_index=0
full_system=false
sim_quantum=0
time_sync_enable=false
time_sync_period=100000000
time_sync_spin_threshold=100000

[system]
type=System
children=accel clk_domain cpu dvfs_handler energy_mgmt mem_ctrl membus vdev0 vdev1
accel_range=538968064:538968064
accel_vaddr=1073741824
boot_osflags=a
cache_line_size=64
clk_domain=system.clk_domain
eventq_index=0
has_vdev=true
init_param=0
kernel=
kernel_addr_check=true
load_addr_mask=1099511627775
load_offset=0
mem_mode=atomic
mem_ranges=0:536870911
memories=system.mem_ctrl
mmap_using_noreserve=false
num_work_ids=16
readfile=
symbolfile=
vaddr_vdev_ranges=1048576000:1048576000 1049624576:1049624576
vdev_ranges=536870912:536870912 537919488:537919488
work_begin_ckpt_count=0
work_begin_cpu_id_exit=-1
work_begin_exit_count=0
work_cpus_ckpt_count=0
work_end_ckpt_count=0
work_end_exit_count=0
work_item_id=-1
system_port=system.membus.slave[2]

[system.accel]
type=Accelerator
clk_domain=system.clk_domain
controlRange=538968064:538968064
count=100
cpu=system.cpu
delay_compute=10000000
delay_cpu_interrupt=1000000
delay_init=100000
energy_compute_per_tick=10.0
energy_idle_per_tick=0.4
eventq_index=0
ctrlPort=system.membus.master[3]
memPort=system.membus.slave[3]

[system.clk_domain]
type=SrcClockDomain
children=voltage_domain
clock=1000
domain_id=-1
eventq_index=0
init_perf_level=0
voltage_domain=system.clk_domain.voltage_domain

[system.clk_domain.voltage_domain]
type=VoltageDomain
eventq_index=0
voltage=1.000000

[system.cpu]
type=AtomicSimpleCPU
children=dstage2_mmu dtb interrupts isa istage2_mmu itb tracer workload
branchPred=Null
checker=Null
clk_domain=system.clk_domain
cpu_id=-1
cycle_backup=5
cycle_restore=3
do_checkpoint_insts=true
do_quiesce=true
do_statistics_insts=true
dstage2_mmu=system.cpu.dstage2_mmu
dtb=system.cpu.dtb
eventq_index=0
fastmem=false
function_trace=false
function_trace_start=0
interrupts=system.cpu.interrupts
isa=system.cpu.isa
istage2_mmu=system.cpu.istage2_mmu
itb=system.cpu.itb
max_insts_all_threads=0
max_insts_any_thread=0
max_loads_all_threads=0
max_loads_any_thread=0
numThreads=1
power_cpu=0.0 0.3 1.3
profile=0
progress_interval=0
simpoint_start_insts=
simulate_data_stalls=false
simulate_inst_stalls=false
socket_id=0
switched_out=false
system=system
tracer=system.cpu.tracer
width=1
workload=system.cpu.workload
dcache_port=system.membus.slave[1]
icache_port=system.membus.slave[0]

[system.cpu.dstage2_mmu]
type=ArmStage2MMU
children=stage2_tlb
eventq_index=0
stage2_tlb=system.cpu.dstage2_mmu.stage2_tlb
sys=system
tlb=system.cpu.dtb

[system.cpu.dstage2_mmu.stage2_tlb]
type=ArmTLB
children=walker
eventq_index=0
is_stage2=true
size=32
walker=system.cpu.dstage2_mmu.stage2_tlb.walker

[system.cpu.dstage2_mmu.stage2_tlb.walker]
type=ArmTableWalker
clk_domain=system.clk_domain
eventq_index=0
is_stage2=true
num_squash_per_cycle=2
sys=system

[system.cpu.dtb]
type=ArmTLB
children=walker
eventq_index=0
is_stage2=false
size=64
walker=system.cpu.dtb.walker

[system.cpu.dtb.walker]
type=ArmTableWalker
clk_domain=system.clk_domain
eventq_index=0
is_stage2=false
num_squash_per_cycle=2
sys=system

[system.cpu.interrupts]
type=ArmInterrupts
eventq_index=0

[system.cpu.isa]
type=ArmISA
eventq_index=0
fpsid=1090793632
id_aa64afr0_el1=0
id_aa64afr1_el1=0
id_aa64dfr0_el1=1052678
id_aa64dfr1_el1=0
id_aa64isar0_el1=0
id_aa64isar1_el1=0
id_aa64mmfr0_el1=15728642
id_aa64mmfr1_el1=0
id_aa64pfr0_el1=17
id_aa64pfr1_el1=0
id_isar0=34607377
id_isar1=34677009
id_isar2=555950401
id_isar3=17899825
id_isar4=268501314
id_isar5=0
id_mmfr0=270536963
id_mmfr1=0
id_mmfr2=19070976
id_mmfr3=34611729
id_pfr0=49
id_pfr1=4113
midr=1091551472
pmu=Null
system=system

[system.cpu.istage2_mmu]
type=ArmStage2MMU
children=stage2_tlb
eventq_index=0
stage2_tlb=system.cpu.istage2_mmu.stage2_tlb
sys=system
tlb=system.cpu.itb

[system.cpu.istage2_mmu.stage2_tlb]
type=ArmTLB
children=walker
eventq_index=0
is_stage2=true
size=32
walker=system.cpu.istage2_mmu.stage2_tlb.walker

[system.cpu.istage2_mmu.stage2_tlb.walker]
type=ArmTableWalker
clk_domain=system.clk_domain
eventq_index=0
is_stage2=true
num_squash_per_cycle=2
sys=system

[system.cpu.itb]
type=ArmTLB
children=walker
eventq_index=0
is_stage2=false
size=64
walker=system.cpu.itb.walker

[system.cpu.itb.walker]
type=ArmTableWalker
clk_domain=system.clk_domain
eventq_index=0
is_stage2=false
num_squash_per_cycle=2
sys=system

[system.cpu.tracer]
type=ExeTracer
eventq_index=0

[system.cpu.workload]
type=LiveProcess
cmd=tests/accelprog/accel_test
cwd=
drivers=
egid=100
env=
errout=cerr
euid=100
eventq_index=0
executable=
gid=100
input=cin
kvmInSE=false
max_stack_size=67108864
output=cout
pid=100
ppid=99
simpoint=0
system=system
uid=100
useArchPT=false

[system.dvfs_handler]
type=DVFSHandler
domains=
enable=false
eventq_index=0
sys_clk_domain=system.clk_domain
transition_latency=100000

[system.energy_mgmt]
type=EnergyMgmt
children=harvest_module state_machine
capacity=2.4
energy_profile_mult=0.04
energy_time_unit=10000
eventq_index=0
harvest_module=system.energy_mgmt.harvest_module
path_energy_profile=profile/solar_new_60000.txt
state_machine=system.energy_mgmt.state_machine
system_leakage=0.2

[system.energy_mgmt.harvest_module]
type=SimpleHarvester
eventq_index=0

[system.energy_mgmt.state_machine]
type=SimpleEnergySM
eventq_index=0
thres_1_to_off=1452.0
thres_off_to_1=24300.0

[system.mem_ctrl]
type=DRAMCtrl
IDD0=0.075000
IDD02=0.000000
IDD2N=0.050000
IDD2N2=0.000000
IDD2P0=0.000000
IDD2P02=0.000000
IDD2P1=0.000000
IDD2P12=0.000000
IDD3N=0.057000
IDD3N2=0.000000
IDD3P0=0.000000
IDD3P02=0.000000
IDD3P1=0.000000
IDD3P12=0.000000
IDD4R=0.187000
IDD4R2=0.000000
IDD4W=0.165000
IDD4W2=0.000000
IDD5=0.220000
IDD52=0.000000
IDD6=0.000000
IDD62=0.000000
VDD=1.500000
VDD2=0.000000
activation_limit=4
addr_mapping=RoRaBaCoCh
bank_groups_per_rank=0
banks_per_rank=8
burst_length=8
channels=1
clk_domain=system.clk_domain
conf_table_reported=true
device_bus_width=8
device_rowbuffer_size=1024
device_size=536870912
devices_per_rank=8
dll=true
eventq_index=0
in_addr_map=true
max_accesses_per_row=16
mem_sched_policy=frfcfs
min_writes_per_switch=16
null=false
page_policy=open_adaptive
range=0:536870911
ranks_per_channel=2
read_buffer_size=32
static_backend_latency=10
static_frontend_latency=10
tBURST=5
tCCD_L=0
tCK=1
tCL=14
tCS=3
tRAS=35
tRCD=14
tREFI=7800
tRFC=260
tRP=14
tRRD=6
tRRD_L=0
tRTP=8
tRTW=3
tWR=15
tWTR=8
tXAW=30
tXP=0
tXPDLL=0
tXS=0
tXSDLL=0
write_buffer_size=64
write_high_thresh_perc=85
write_low_thresh_perc=50
port=system.membus.master[0]

[system.membus]
type=CoherentXBar
clk_domain=system.clk_domain
eventq_index=0
forward_latency=4
frontend_latency=3
response_latency=2
snoop_filter=Null
snoop_response_latency=4
system=system
use_default_range=false
width=16
master=system.mem_ctrl.port system.vdev0.port system.vdev1.port system.accel.ctrlPort
slave=system.cpu.icache_port system.cpu.dcache_port system.system_port system.accel.memPort

[system.vdev0]
type=VirtualDevice
clk_domain=system.clk_domain
cpu=system.cpu
delay_cpu_interrupt=100000
delay_recover=920000
delay_remained=1000000
delay_self=1000000
delay_set=2200000
energy_consumed_per_cycle_vdev=0.0 0.06 0.6 1.35
eventq_index=0
id=0
is_interruptable=false
need_log=true
range=536870912:536870912
port=system.membus.master[1]

[system.vdev1]
type=VirtualDevice
clk_domain=system.clk_domain
cpu=system.cpu
delay_cpu_interrupt=100000
delay_recover=492000
delay_remained=1000000
delay_self=1000000
delay_set=1281000
energy_consumed_per_cycle_vdev=0.0 0.26 0.416 0.416
eventq_index=0
id=1
is_interruptable=false
need_log=true
range=537919488:537919488
port=system.membus.master[2]

